data_104812
_cell_length_a                   9.65405380967
_cell_length_b                   9.65405380967
_cell_length_c                   9.47450027743
_cell_angle_alpha                77.3671185226
_cell_angle_beta                 102.632881477
_cell_angle_gamma                62.3159161362
_chemical_formula_sum           'Cl9 K2 Ta3'
_symmetry_space_group_name_H-M  'P 1'
_symmetry_space_group_name_Hall ' P 1'
loop_
_space_group_symop_id
_space_group_symop_operation_xyz
1 x,y,z
_cell_formula_units_Z           2
_oqmd_space_group_name_H-M   'C2/m'
_oqmd_space_group_name_Hall  '-C 2y'
_oqmd_space_group_crystal_system      monoclinic
_oqmd_space_group_IT_number           12
loop_
_atom_site_label
_atom_site_fract_x
_atom_site_fract_y
_atom_site_fract_z
Cl 0.325799428198 0.674200571802 0.83529960645
Cl 0.67419998465 0.32580001535 0.1646999277
Cl 0.505930415017 0.890729957317 0.82240023367
Cl 0.890730838046 0.505929534288 0.177600465104
Cl 0.494070465712 0.109269161954 0.177600465104
Cl 0.109270042683 0.494069584983 0.82240023367
Cl 0.268900171783 0.731099828217 0.207299535641
Cl 0.731100242065 0.268899757935 0.792699998509
Cl 0.407709993613 0.802310099834 0.512100207955
Cl 0.802309979562 0.407710113885 0.487900490819
Cl 0.592289886115 0.197690020438 0.487900490819
Cl 0.197689900166 0.592290006387 0.512100207955
Cl 0.875360363933 0.915560061176 0.177600465104
Cl 0.915559940904 0.875360484205 0.82240023367
Cl 0.124639515795 0.0844400590956 0.82240023367
Cl 0.0844399388237 0.124639636067 0.177600465104
Cl 0.208820140592 0.208819726743 0.499999767075
Cl 0.791180273257 0.791179859408 0.499999767075
K 0.552109780675 0.770310148151 0.177299992174
K 0.770309560998 0.552110367827 0.822699541977
K 0.447889632173 0.229690439002 0.822699541977
K 0.229689851849 0.447890219325 0.177299992174
Ta 0.223077150568 0.951836302357 0.641300074163
Ta 0.951836716206 0.22307673672 0.358699459987
Ta 0.77692326328 0.0481632837942 0.358699459987
Ta 0.0481636976425 0.776922849432 0.641300074163
Ta 0.119079811025 0.880920188975 0.368889917899
Ta 0.880919601823 0.119080398177 0.631109616252
