data_104830
_cell_length_a                   6.3987
_cell_length_b                   6.6899
_cell_length_c                   17.2975
_cell_angle_alpha                90
_cell_angle_beta                 90
_cell_angle_gamma                90
_chemical_formula_sum           'P1 Pb1 Rb1 S4'
_symmetry_space_group_name_H-M  'P 1'
_symmetry_space_group_name_Hall ' P 1'
loop_
_space_group_symop_id
_space_group_symop_operation_xyz
1 x,y,z
_cell_formula_units_Z           4
_oqmd_space_group_name_H-M   'P212121'
_oqmd_space_group_name_Hall  'P 2ac 2ab'
_oqmd_space_group_crystal_system      orthorhombic
_oqmd_space_group_IT_number           19
loop_
_atom_site_label
_atom_site_fract_x
_atom_site_fract_y
_atom_site_fract_z
P 0.218900714208 0.0103095711446 0.347909813557
P 0.281099285792 0.989690428855 0.847909813557
P 0.718900714208 0.489690428855 0.652090186443
P 0.781099285792 0.510309571145 0.152090186443
Pb 0.288910247394 0.474939834676 0.230842029195
Pb 0.211089752606 0.525060165324 0.730842029195
Pb 0.788910247394 0.0250601653238 0.769157970805
Pb 0.711089752606 0.974939834676 0.269157970805
Rb 0.0211902417679 0.00342008101765 0.0431900563665
Rb 0.478809758232 0.996579918982 0.543190056367
Rb 0.521190241768 0.496579918982 0.956809943633
Rb 0.978809758232 0.503420081018 0.456809943633
S 0.610100489162 0.258760220631 0.131630004336
S 0.889899510838 0.741239779369 0.631630004336
S 0.110100489162 0.241239779369 0.868369995664
S 0.389899510838 0.758760220631 0.368369995664
S 0.398999796834 0.251419303727 0.375199884376
S 0.101000203166 0.748580696273 0.875199884376
S 0.898999796834 0.248580696273 0.624800115624
S 0.601000203166 0.751419303727 0.124800115624
S 0.15329988904 0.0315998744376 0.231339788987
S 0.34670011096 0.968400125562 0.731339788987
S 0.65329988904 0.468400125562 0.768660211013
S 0.84670011096 0.531599874438 0.268660211013
S 0.0472002125432 0.503899908818 0.0880601242954
S 0.452799787457 0.496100091182 0.588060124295
S 0.547200212543 0.996100091182 0.911939875705
S 0.952799787457 0.00389990881777 0.411939875705
